@<TRIPOS>MOLECULE
methyl propanoate
   14    13     0     0     0
SMALL
USER_CHARGES

@<TRIPOS>ATOM
      1 C1         -2.0715    1.2977    2.4497 C.2       1 MOL         0.6280
      2 C2         -0.8816    0.5302    0.3734 C.3       1 MOL        -0.0927
      3 C3         -3.0831    1.9316    4.4926 C.3       1 MOL         0.1265
      4 C4         -0.8823    0.5514    1.8920 C.3       1 MOL        -0.1270
      5 O1         -2.9385    1.8436    1.7813 O.2       1 MOL        -0.5370
      6 O2         -2.0159    1.2612    3.8143 O.3       1 MOL        -0.4467
      7 H1         -1.7850    0.0473   -0.0137 H         1 MOL         0.0479
      8 H2         -0.8422    1.5497   -0.0221 H         1 MOL         0.0479
      9 H3         -0.0168   -0.0202   -0.0117 H         1 MOL         0.0479
     10 H4         -2.9426    1.8421    5.5726 H         1 MOL         0.0501
     11 H5         -4.0378    1.4870    4.2005 H         1 MOL         0.0501
     12 H6         -3.0744    2.9876    4.2126 H         1 MOL         0.0501
     13 H7          0.0313    1.0393    2.2480 H         1 MOL         0.0773
     14 H8         -0.9104   -0.4767    2.2684 H         1 MOL         0.0773
@<TRIPOS>BOND
     1    1    4 1
     2    1    5 2
     3    1    6 1
     4    2    4 1
     5    3    6 1
     6    2    7 1
     7    2    8 1
     8    2    9 1
     9    3   10 1
    10    3   11 1
    11    3   12 1
    12    4   13 1
    13    4   14 1
