@<TRIPOS>MOLECULE
1,3-dichlorobenzene
   12    12     0     0     0
SMALL
USER_CHARGES

@<TRIPOS>ATOM
      1 C1          1.8851   -1.0363   -0.1124 C.ar      1 MOL        -0.1129
      2 C2          0.8066   -0.4630    0.5610 C.ar      1 MOL        -0.1251
      3 C3          2.9210   -1.6309    0.6081 C.ar      1 MOL        -0.1251
      4 C4          1.7997   -1.0786    2.6757 C.ar      1 MOL        -0.1208
      5 C5          0.7638   -0.4841    1.9551 C.ar      1 MOL         0.0244
      6 C6          2.8783   -1.6520    2.0022 C.ar      1 MOL         0.0244
      7 Cl1        -0.5673    0.2229    2.7855 Cl        1 MOL        -0.0855
      8 Cl2         4.1566   -2.3852    2.8910 Cl        1 MOL        -0.0855
      9 H1          1.9188   -1.0200   -1.1978 H         1 MOL         0.1437
     10 H2          0.0066   -0.0033   -0.0138 H         1 MOL         0.1502
     11 H3          3.7550   -2.0736    0.0699 H         1 MOL         0.1502
     12 H4          1.7670   -1.0947    3.7630 H         1 MOL         0.1618
@<TRIPOS>BOND
     1    1    2 ar
     2    1    3 ar
     3    2    5 ar
     4    3    6 ar
     5    4    5 ar
     6    4    6 ar
     7    5    7 1
     8    6    8 1
     9    1    9 1
    10    2   10 1
    11    3   11 1
    12    4   12 1
