@<TRIPOS>MOLECULE
2-chlorophenol
   13    13     0     0     0
SMALL
USER_CHARGES

@<TRIPOS>ATOM
      1 C1          1.8851   -1.0363   -0.1124 C.ar      1 MOL        -0.0905
      2 C2          0.8066   -0.4630    0.5610 C.ar      1 MOL        -0.1578
      3 C3          2.9210   -1.6309    0.6081 C.ar      1 MOL        -0.2082
      4 C4          0.7638   -0.4841    1.9551 C.ar      1 MOL        -0.0930
      5 C5          2.8783   -1.6520    2.0022 C.ar      1 MOL         0.1323
      6 C6          1.7997   -1.0786    2.6757 C.ar      1 MOL        -0.0136
      7 O1          3.9043   -2.2397    2.6805 O.3       1 MOL        -0.4820
      8 Cl1         1.7208   -1.0904    4.3989 Cl        1 MOL        -0.0714
      9 H1          1.9184   -1.0198   -1.1979 H         1 MOL         0.1359
     10 H2          0.0001   -0.0002   -0.0002 H         1 MOL         0.1401
     11 H3          3.7581   -2.0756    0.0768 H         1 MOL         0.1380
     12 H4         -0.0836   -0.0331    2.4651 H         1 MOL         0.1483
     13 H5          4.5634   -2.5833    2.0576 H         1 MOL         0.4220
@<TRIPOS>BOND
     1    1    2 ar
     2    1    3 ar
     3    2    4 ar
     4    3    5 ar
     5    4    6 ar
     6    5    6 ar
     7    5    7 1
     8    6    8 1
     9    1    9 1
    10    2   10 1
    11    3   11 1
    12    4   12 1
    13    7   13 1
