@<TRIPOS>MOLECULE
but-1-ene
   12    11     0     0     0
SMALL
USER_CHARGES

@<TRIPOS>ATOM
      1 C1          0.6567   -1.0574   -0.4308 C.2       1 MOL        -0.2232
      2 C2          1.9491   -0.7461   -0.2814 C.2       1 MOL        -0.1619
      3 C3          3.1010    0.3358   -2.2125 C.3       1 MOL        -0.0875
      4 C4          2.5725    0.5157   -0.7980 C.3       1 MOL        -0.0540
      5 H1          0.2468   -1.9824   -0.0407 H         1 MOL         0.1102
      6 H2         -0.0142   -0.3821   -0.9506 H         1 MOL         0.1102
      7 H3          2.5932   -1.4388    0.2543 H         1 MOL         0.1172
      8 H4          3.8206   -0.4883   -2.2455 H         1 MOL         0.0343
      9 H5          3.6070    1.2412   -2.5639 H         1 MOL         0.0343
     10 H6          2.2909    0.1039   -2.9123 H         1 MOL         0.0343
     11 H7          1.8542    1.3439   -0.7838 H         1 MOL         0.0431
     12 H8          3.3978    0.7976   -0.1343 H         1 MOL         0.0431
@<TRIPOS>BOND
     1    1    2 2
     2    2    4 1
     3    3    4 1
     4    1    5 1
     5    1    6 1
     6    2    7 1
     7    3    8 1
     8    3    9 1
     9    3   10 1
    10    4   11 1
    11    4   12 1
