@<TRIPOS>MOLECULE
2-chloropropane
   11    10     0     0     0
SMALL
USER_CHARGES

@<TRIPOS>ATOM
      1 C1          0.8645   -0.5428    0.3972 C.3       1 MOL        -0.1039
      2 C2          1.1975    1.1739    2.2084 C.3       1 MOL        -0.1039
      3 C3          1.0062   -0.3025    1.8932 C.3       1 MOL         0.0615
      4 Cl1         2.3974   -1.2326    2.5189 Cl        1 MOL        -0.2115
      5 H1          1.7438   -0.1776   -0.1445 H         1 MOL         0.0483
      6 H2          0.7663   -1.6131    0.1865 H         1 MOL         0.0483
      7 H3         -0.0188   -0.0387   -0.0102 H         1 MOL         0.0483
      8 H4          2.0833    1.5722    1.7019 H         1 MOL         0.0483
      9 H5          1.3356    1.3232    3.2845 H         1 MOL         0.0483
     10 H6          0.3318    1.7681    1.8958 H         1 MOL         0.0483
     11 H7          0.1164   -0.6755    2.4103 H         1 MOL         0.0680
@<TRIPOS>BOND
     1    1    3 1
     2    2    3 1
     3    3    4 1
     4    1    5 1
     5    1    6 1
     6    1    7 1
     7    2    8 1
     8    2    9 1
     9    2   10 1
    10    3   11 1
