@<TRIPOS>MOLECULE
1,1,1,2,2,2-hexachloroethane
    8     7     0     0     0
SMALL
USER_CHARGES

@<TRIPOS>ATOM
      1 C1         -0.2055    0.3634    0.6554 C.3       1 MOL         0.2217
      2 C2          0.2057   -0.3634   -0.6555 C.3       1 MOL         0.2218
      3 Cl1        -1.1667   -0.7092    1.7440 Cl        1 MOL        -0.0739
      4 Cl2         1.2328    0.9179    1.5951 Cl        1 MOL        -0.0739
      5 Cl3        -1.2156    1.8229    0.3250 Cl        1 MOL        -0.0739
      6 Cl4        -1.2328   -0.9176   -1.5950 Cl        1 MOL        -0.0739
      7 Cl5         1.2157   -1.8227   -0.3249 Cl        1 MOL        -0.0739
      8 Cl6         1.1669    0.7092   -1.7441 Cl        1 MOL        -0.0739
@<TRIPOS>BOND
     1    1    2 1
     2    1    3 1
     3    1    4 1
     4    1    5 1
     5    2    6 1
     6    2    7 1
     7    2    8 1
