@<TRIPOS>MOLECULE
1,1,2-trichloroethane
    8     7     0     0     0
SMALL
USER_CHARGES

@<TRIPOS>ATOM
      1 C1         -0.1944    0.6220    0.4658 C.3       1 MOL         0.0112
      2 C2          0.4262   -0.4924   -0.3724 C.3       1 MOL         0.1343
      3 Cl1        -1.9773    0.6014    0.4732 Cl        1 MOL        -0.1560
      4 Cl2        -0.0250   -0.3618   -2.0906 Cl        1 MOL        -0.1388
      5 Cl3         0.0054   -2.1067    0.2521 Cl        1 MOL        -0.1388
      6 H1          0.1335    0.5476    1.5078 H         1 MOL         0.0904
      7 H2          0.1153    1.6033    0.0916 H         1 MOL         0.0904
      8 H3          1.5163   -0.4134   -0.3274 H         1 MOL         0.1073
@<TRIPOS>BOND
     1    1    2 1
     2    1    3 1
     3    2    4 1
     4    2    5 1
     5    1    6 1
     6    1    7 1
     7    2    8 1
