@<TRIPOS>MOLECULE
1,2,3,4,5-pentachloro-6-nitro-benzene
   14    14     0     0     0
SMALL
USER_CHARGES

@<TRIPOS>ATOM
      1 C1          1.8851   -1.0363   -0.1124 C.ar      1 MOL        -0.1554
      2 C2          0.8066   -0.4630    0.5610 C.ar      1 MOL         0.0748
      3 C3          2.9210   -1.6309    0.6081 C.ar      1 MOL         0.0748
      4 C4          0.7638   -0.4841    1.9551 C.ar      1 MOL         0.0022
      5 C5          2.8783   -1.6520    2.0022 C.ar      1 MOL         0.0022
      6 C6          1.7997   -1.0786    2.6757 C.ar      1 MOL         0.0576
      7 N1          1.9282   -1.0154   -1.5413 N.pl3     1 MOL         0.3180
      8 O1          0.9853   -0.4765   -2.1605 O.2       1 MOL        -0.1762
      9 O2          2.9073   -1.5364   -2.1181 O.2       1 MOL        -0.1762
     10 Cl1        -0.4786    0.2740   -0.3566 Cl        1 MOL         0.0059
     11 Cl2         4.2593   -2.3421   -0.2517 Cl        1 MOL         0.0059
     12 Cl3        -0.5854    0.2338    2.7930 Cl        1 MOL        -0.0130
     13 Cl4         4.1749   -2.3959    2.8985 Cl        1 MOL        -0.0130
     14 Cl5         1.7467   -1.1045    4.4182 Cl        1 MOL        -0.0077
@<TRIPOS>BOND
     1    1    2 ar
     2    1    3 ar
     3    1    7 1
     4    2    4 ar
     5    2   10 1
     6    3    5 ar
     7    3   11 1
     8    4    6 ar
     9    4   12 1
    10    5    6 ar
    11    5   13 1
    12    6   14 1
    13    7    8 2
    14    7    9 2
