@<TRIPOS>MOLECULE
4-methylpyridine
   14    14     0     0     0
SMALL
USER_CHARGES

@<TRIPOS>ATOM
      1 C1          0.2265   -0.4197    0.9733 C.ar      1 MOL        -0.2492
      2 C2          1.6520   -0.6227    2.8997 C.ar      1 MOL        -0.2492
      3 C3         -0.6317   -1.3224    1.5803 C.ar      1 MOL         0.3962
      4 C4          0.7299   -1.5161    3.4206 C.ar      1 MOL         0.3962
      5 C5          1.3879   -0.0684    1.6522 C.ar      1 MOL        -0.0391
      6 C6          2.3469    0.8982    1.0445 C.3       1 MOL        -0.0616
      7 N1         -0.4092   -1.8816    2.7908 N.ar      1 MOL        -0.6696
      8 H1         -0.0080   -0.0059   -0.0017 H         1 MOL         0.1423
      9 H2          2.5490   -0.3683    3.4537 H         1 MOL         0.1423
     10 H3         -1.5505   -1.6300    1.0917 H         1 MOL         0.0210
     11 H4          0.8895   -1.9761    4.3902 H         1 MOL         0.0210
     12 H5          2.0940    1.9241    1.3393 H         1 MOL         0.0499
     13 H6          3.3774    0.6897    1.3604 H         1 MOL         0.0499
     14 H7          2.3329    0.8380   -0.0518 H         1 MOL         0.0499
@<TRIPOS>BOND
     1    1    3 ar
     2    1    5 ar
     3    2    4 ar
     4    2    5 ar
     5    3    7 ar
     6    4    7 ar
     7    5    6 1
     8    1    8 1
     9    2    9 1
    10    3   10 1
    11    4   11 1
    12    6   12 1
    13    6   13 1
    14    6   14 1
